Version 4
SHEET 1 2420 680
WIRE 272 32 272 16
WIRE 448 48 448 32
WIRE 464 48 448 48
WIRE 736 48 736 32
WIRE 752 48 736 48
WIRE 1104 48 1104 32
WIRE 1120 48 1104 48
WIRE 1472 48 1472 32
WIRE 1488 48 1472 48
WIRE 464 96 464 48
WIRE 464 96 448 96
WIRE 752 96 752 48
WIRE 752 96 736 96
WIRE 1120 96 1120 48
WIRE 1120 96 1104 96
WIRE 1488 96 1488 48
WIRE 1488 96 1472 96
WIRE 272 128 272 112
WIRE 400 128 384 128
WIRE 688 128 672 128
WIRE 1056 128 1040 128
WIRE 1424 128 1408 128
WIRE 1808 144 1808 128
WIRE 1968 144 1968 128
WIRE 384 160 384 128
WIRE 384 160 352 160
WIRE 448 160 448 144
WIRE 672 160 672 128
WIRE 672 160 448 160
WIRE 736 160 736 144
WIRE 1040 160 1040 128
WIRE 1040 160 736 160
WIRE 1104 160 1104 144
WIRE 1120 160 1104 160
WIRE 1408 160 1408 128
WIRE 1408 160 1376 160
WIRE 448 176 448 160
WIRE 736 176 736 160
WIRE 1104 176 1104 160
WIRE 1472 176 1472 144
WIRE 464 224 448 224
WIRE 752 224 736 224
WIRE 1120 224 1104 224
WIRE 1488 224 1472 224
WIRE 1808 240 1808 224
WIRE 1968 240 1968 224
WIRE 272 256 272 240
WIRE 384 256 384 160
WIRE 400 256 384 256
WIRE 672 256 672 160
WIRE 688 256 672 256
WIRE 1040 256 1040 160
WIRE 1056 256 1040 256
WIRE 1408 256 1408 160
WIRE 1424 256 1408 256
WIRE 464 272 464 224
WIRE 464 272 448 272
WIRE 752 272 752 224
WIRE 752 272 736 272
WIRE 1120 272 1120 224
WIRE 1120 272 1104 272
WIRE 1488 272 1488 224
WIRE 1488 272 1472 272
WIRE 448 288 448 272
WIRE 736 288 736 272
WIRE 1104 288 1104 272
WIRE 1472 288 1472 272
WIRE 272 352 272 336
FLAG 448 288 0
FLAG 448 32 Vdd_1-3
FLAG 352 160 IN
FLAG 272 240 IN
FLAG 1968 128 Vdd_1-3
FLAG 272 352 0
FLAG 1968 240 0
FLAG 1472 288 0
FLAG 1472 32 Vdd_L
FLAG 1376 160 OUT
FLAG 272 16 Vdd_L
FLAG 272 128 0
FLAG 736 288 0
FLAG 736 32 Vdd_2
FLAG 1104 288 0
FLAG 1104 32 Vdd_1-3
FLAG 1120 160 OUT
FLAG 1808 128 Vdd_2
FLAG 1808 240 0
SYMBOL voltage 1968 128 R0
WINDOW 123 0 0 Left 0
WINDOW 39 0 0 Left 0
SYMATTR InstName Vsup_1-3
SYMATTR Value 1
SYMBOL voltage 272 240 R0
WINDOW 123 0 0 Left 0
WINDOW 39 0 0 Left 0
SYMATTR InstName Vdrv
SYMATTR Value PULSE(0 1 5n 10p 10p 5n 10.02n)
SYMBOL pmos4 400 48 R0
WINDOW 0 70 39 Left 2
WINDOW 3 111 39 Left 2
WINDOW 123 70 62 Left 2
SYMATTR InstName M1
SYMATTR Value EECMOSP
SYMATTR Value2 l=100n w={wp}
SYMBOL nmos4 400 176 R0
WINDOW 0 69 37 Left 2
WINDOW 3 111 37 Left 2
WINDOW 123 69 60 Left 2
SYMATTR InstName M2
SYMATTR Value EECMOSN
SYMATTR Value2 l=100n w=120n
SYMBOL pmos4 1424 48 R0
WINDOW 0 70 39 Left 2
WINDOW 3 111 39 Left 2
WINDOW 123 70 62 Left 2
SYMATTR InstName M3
SYMATTR Value EECMOSP
SYMATTR Value2 l=100n w={50*wp}
SYMBOL nmos4 1424 176 R0
WINDOW 0 69 37 Left 2
WINDOW 3 111 37 Left 2
WINDOW 123 69 60 Left 2
SYMATTR InstName M4
SYMATTR Value EECMOSN
SYMATTR Value2 l=100n w={50*120n}
SYMBOL voltage 272 16 R0
WINDOW 123 0 0 Left 0
WINDOW 39 0 0 Left 0
SYMATTR InstName Vsup_L
SYMATTR Value 1
SYMBOL pmos4 688 48 R0
WINDOW 0 70 39 Left 2
WINDOW 3 111 39 Left 2
WINDOW 123 70 62 Left 2
SYMATTR InstName M5
SYMATTR Value EECMOSP
SYMATTR Value2 l=100n w={S2*wp}
SYMBOL nmos4 688 176 R0
WINDOW 0 69 37 Left 2
WINDOW 3 111 37 Left 2
WINDOW 123 69 60 Left 2
SYMATTR InstName M6
SYMATTR Value EECMOSN
SYMATTR Value2 l=100n w={S2*120n}
SYMBOL pmos4 1056 48 R0
WINDOW 0 70 39 Left 2
WINDOW 3 111 39 Left 2
WINDOW 123 70 62 Left 2
SYMATTR InstName M7
SYMATTR Value EECMOSP
SYMATTR Value2 l=100n w={S3*wp}
SYMBOL nmos4 1056 176 R0
WINDOW 0 69 37 Left 2
WINDOW 3 111 37 Left 2
WINDOW 123 69 60 Left 2
SYMATTR InstName M8
SYMATTR Value EECMOSN
SYMATTR Value2 l=100n w={S3*120n}
SYMBOL voltage 1808 128 R0
WINDOW 123 0 0 Left 0
WINDOW 39 0 0 Left 0
SYMATTR InstName Vsup_2
SYMATTR Value 1
TEXT 240 -208 Left 2 !.inc ..\\..\\..\\res\\libs\\RIT_Models_For_LTSPICE.txt
TEXT 184 -160 Left 2 !.tran 0 15n 0
TEXT 184 -128 Left 2 !.param wp=1.9504752376188094e-07
TEXT 840 -192 Left 2 !.meas TRAN delay TRIG v(IN)=0.5 FALL=1 TARG v(OUT)=0.5 RISE=1
TEXT 544 -152 Left 2 !.param S2=2.6560311001529646\n.param S3=8.875812210681433
TEXT 840 -160 Left 2 !.meas TRAN energy_2 INTEG -1*v(Vdd_2)*i(Vsup_2) TRIG V(IN)=0.01 RISE=1 TARG V(OUT)=0.01 FALL=1\n.meas TRAN energy_1_3 INTEG -1*v(Vdd_1-3)*i(Vsup_1-3) TRIG V(IN)=0.99 FALL=1 TARG V(OUT)=0.99 RISE=1
